test/test_perturbation_outputs/pert_min_loss/pglib_opf_case179_goc.m
%% MATPOWER Case Format : Version 2
function mpc = pglib_opf_case179_goc
mpc.version = '2';

%%-----  Power Flow Data  -----%%
%% system MVA base
mpc.baseMVA = 100.0;
%% bus data
%    bus_i    type    Pd    Qd    Gs    Bs    area    Vm    Va    baseKV    zone    Vmax    Vmin
mpc.bus = [
	2	1	926.77	-54.77000000000001	0.0	0.0	1	1.003	0.0	1.0	1	1.108	0.898				
	3	1	0.0	0.0	0.0	0.0	1	1.003	0.0	1.0	1	1.108	0.898				
	4	2	46.71	0.0	0.0	0.0	1	1.003	0.0	1.0	1	1.108	0.898				
	5	1	1271.04	-122.37	0.0	0.0	1	1.003	0.0	1.0	1	1.108	0.898				
	6	2	48.57	0.0	0.0	0.0	1	1.003	0.0	1.0	1	1.108	0.898				
	7	1	0.0	0.0	0.0	-112.99999999999999	1	1.003	0.0	1.0	1	1.108	0.898				
	8	1	113.45	-54.21	0.0	-155.0	1	1.003	0.0	1.0	1	1.108	0.898				
	9	2	50.0	0.0	0.0	0.0	1	1.003	0.0	1.0	1	1.108	0.898				
	10	1	67.39	22.91	0.0	0.0	1	1.003	0.0	1.0	1	1.108	0.898				
	11	2	47.87	0.0	0.0	0.0	1	1.003	0.0	1.0	1	1.108	0.898				
	12	1	41.43	65.76	0.0	-190.0	2	1.003	0.0	1.0	1	1.108	0.898				
	13	2	48.55	0.0	0.0	0.0	2	1.003	0.0	1.0	1	1.108	0.898				
	14	1	0.0	0.0	0.0	-391.0	2	1.003	0.0	1.0	1	1.108	0.898				
	15	2	46.55	0.0	0.0	0.0	2	1.003	0.0	1.0	1	1.108	0.898				
	16	1	434.68	215.19999999999996	0.0	-146.0	2	1.003	0.0	1.0	1	1.108	0.898				
	17	1	459.25	4.79	0.0	390.0	1	1.003	0.0	1.0	1	1.108	0.898				
	18	2	51.790000000000006	0.0	0.0	0.0	1	1.003	0.0	1.0	1	1.108	0.898				
	19	1	327.45	-64.08	0.0	-426.99999999999994	2	1.003	0.0	1.0	1	1.108	0.898				
	20	1	0.0	0.0	0.0	0.0	2	1.003	0.0	1.0	1	1.108	0.898				
	21	1	0.0	0.0	0.0	0.0	2	1.003	0.0	1.0	1	1.108	0.898				
	22	1	0.0	0.0	0.0	0.0	2	1.003	0.0	1.0	1	1.108	0.898				
	23	1	0.0	0.0	0.0	0.0	2	1.003	0.0	1.0	1	1.108	0.898				
	24	1	0.0	0.0	0.0	0.0	2	1.003	0.0	1.0	1	1.108	0.898				
	25	1	0.0	0.0	0.0	0.0	2	1.003	0.0	1.0	1	1.108	0.898				
	26	1	0.0	0.0	0.0	0.0	2	1.003	0.0	1.0	1	1.108	0.898				
	27	1	0.0	0.0	0.0	0.0	2	1.003	0.0	1.0	1	1.108	0.898				
	28	1	0.0	0.0	0.0	0.0	1	1.003	0.0	1.0	1	1.108	0.898				
	29	1	0.0	0.0	0.0	0.0	1	1.003	0.0	1.0	1	1.108	0.898				
	30	2	49.3	0.0	0.0	0.0	1	1.003	0.0	1.0	1	1.108	0.898				
	31	1	2376.39	1052.35	0.0	0.0	1	1.003	0.0	1.0	1	1.108	0.898				
	32	1	0.0	0.0	0.0	0.0	1	1.003	0.0	1.0	1	1.108	0.898				
	33	1	0.0	0.0	0.0	0.0	1	1.003	0.0	1.0	1	1.108	0.898				
	34	1	1692.19	703.18	0.0	0.0	1	1.003	0.0	1.0	1	1.108	0.898				
	35	2	45.09	0.0	0.0	0.0	1	1.003	0.0	1.0	1	1.108	0.898				
	36	2	51.16	0.0	0.0	0.0	1	1.003	0.0	1.0	1	1.108	0.898				
	37	1	-843.68	1045.02	0.0	911.9999999999999	2	1.003	0.0	1.0	1	1.108	0.898				
	38	1	0.0	0.0	0.0	0.0	2	1.003	0.0	1.0	1	1.108	0.898				
	39	1	0.0	0.0	0.0	0.0	2	1.003	0.0	1.0	1	1.108	0.898				
	40	2	51.45000000000001	0.0	0.0	0.0	2	1.003	0.0	1.0	1	1.108	0.898				
	41	1	69.79	28.000000000000004	0.0	0.0	2	1.003	0.0	1.0	1	1.108	0.898				
	42	1	0.0	0.0	0.0	0.0	2	1.003	0.0	1.0	1	1.108	0.898				
	43	2	49.01	0.0	0.0	0.0	2	1.003	0.0	1.0	1	1.108	0.898				
	44	1	1098.25	902.5	0.0	430.0	1	1.003	0.0	1.0	1	1.108	0.898				
	45	2	52.83	0.0	0.0	0.0	1	1.003	0.0	1.0	1	1.108	0.898				
	46	1	-35.89	-17.32	0.0	0.0	2	1.003	0.0	1.0	1	1.108	0.898				
	47	2	53.25	0.0	0.0	0.0	2	1.003	0.0	1.0	1	1.108	0.898				
	48	1	55.04	24.01	0.0	0.0	2	1.003	0.0	1.0	1	1.108	0.898				
	49	1	0.0	0.0	0.0	-80.0	2	1.003	0.0	1.0	1	1.108	0.898				
	50	1	172.41	62.09	0.0	0.0	2	1.003	0.0	1.0	1	1.108	0.898				
	51	1	115.97999999999999	-58.77	0.0	0.0	2	1.003	0.0	1.0	1	1.108	0.898				
	52	1	0.0	0.0	0.0	0.0	2	1.003	0.0	1.0	1	1.108	0.898				
	53	1	0.0	0.0	0.0	0.0	2	1.003	0.0	1.0	1	1.108	0.898				
	54	1	74.1	29.03	0.0	0.0	2	1.003	0.0	1.0	1	1.108	0.898				
	55	1	427.39000000000004	126.16000000000001	0.0	0.0	2	1.003	0.0	1.0	1	1.108	0.898				
	56	1	0.0	0.0	0.0	0.0	2	1.003	0.0	1.0	1	1.108	0.898				
	57	1	62.17	24.03	0.0	0.0	2	1.003	0.0	1.0	1	1.108	0.898				
	58	1	59.47	25.47	0.0	0.0	2	1.003	0.0	1.0	1	1.108	0.898				
	59	1	480.82000000000005	-6.570000000000001	0.0	0.0	2	1.003	0.0	1.0	1	1.108	0.898				
	60	1	-1459.73	1687.42	0.0	2146.0	2	1.003	0.0	1.0	1	1.108	0.898				
	61	1	185.63	75.27	0.0	0.0	2	1.003	0.0	1.0	1	1.108	0.898				
	62	1	96.01	18.56	0.0	0.0	2	1.003	0.0	1.0	1	1.108	0.898				
	63	1	-69.23	30.320000000000004	0.0	-108.0	2	1.003	0.0	1.0	1	1.108	0.898				
	64	1	0.0	0.0	0.0	0.0	2	1.003	0.0	1.0	1	1.108	0.898				
	65	2	46.97	0.0	0.0	0.0	1	1.003	0.0	1.0	1	1.108	0.898				
	66	1	774.37	298.97	0.0	0.0	1	1.003	0.0	1.0	1	1.108	0.898				
	67	1	78.5	31.52	0.0	0.0	1	1.003	0.0	1.0	1	1.108	0.898				
	68	1	-35.37	174.17	0.0	576.85	1	1.003	0.0	1.0	1	1.108	0.898				
	69	1	-23.29	20.73	0.0	0.0	1	1.003	0.0	1.0	1	1.108	0.898				
	70	2	51.910000000000004	0.0	0.0	0.0	1	1.003	0.0	1.0	1	1.108	0.898				
	71	1	1486.08	1816.85	0.0	792.0	1	1.003	0.0	1.0	1	1.108	0.898				
	72	1	0.0	0.0	0.0	462.0	1	1.003	0.0	1.0	1	1.108	0.898				
	73	1	-781.91	-53.83	0.0	0.0	1	1.003	0.0	1.0	1	1.108	0.898				
	74	1	0.0	0.0	0.0	0.0	1	1.003	0.0	1.0	1	1.108	0.898				
	75	1	1223.08	413.69999999999993	0.0	0.0	1	1.003	0.0	1.0	1	1.108	0.898				
	76	1	1617.7700000000002	1164.73	0.0	1019.35	1	1.003	0.0	1.0	1	1.108	0.898				
	77	3	54.24	0.0	0.0	0.0	1	1.003	0.0	1.0	1	1.108	0.898				
	78	1	1780.83	538.1	0.0	550.0	1	1.003	0.0	1.0	1	1.108	0.898				
	79	2	53.90999999999999	0.0	0.0	0.0	1	1.003	0.0	1.0	1	1.108	0.898				
	80	1	2289.75	396.38	0.0	1200.0	1	1.003	0.0	1.0	1	1.108	0.898				
	81	1	0.0	0.0	0.0	-220.00000000000003	1	1.003	0.0	1.0	1	1.108	0.898				
	82	1	-30.36	-92.62	0.0	-674.0	1	1.003	0.0	1.0	1	1.108	0.898				
	83	1	-185.65	-127.12	0.0	-110.00000000000001	1	1.003	0.0	1.0	1	1.108	0.898				
	84	1	0.0	0.0	0.0	-220.00000000000003	1	1.003	0.0	1.0	1	1.108	0.898				
	85	1	307.42	-452.74	0.0	-869.9999999999999	1	1.003	0.0	1.0	1	1.108	0.898				
	86	1	0.0	0.0	0.0	0.0	1	1.003	0.0	1.0	1	1.108	0.898				
	87	1	0.0	0.0	0.0	0.0	1	1.003	0.0	1.0	1	1.108	0.898				
	88	1	0.0	0.0	0.0	0.0	1	1.003	0.0	1.0	1	1.108	0.898				
	89	1	0.0	0.0	0.0	0.0	1	1.003	0.0	1.0	1	1.108	0.898				
	90	1	0.0	0.0	0.0	0.0	1	1.003	0.0	1.0	1	1.108	0.898				
	91	1	0.0	0.0	0.0	0.0	1	1.003	0.0	1.0	1	1.108	0.898				
	92	1	0.0	0.0	0.0	0.0	1	1.003	0.0	1.0	1	1.108	0.898				
	93	1	0.0	0.0	0.0	0.0	1	1.003	0.0	1.0	1	1.108	0.898				
	94	1	0.0	0.0	0.0	0.0	1	1.003	0.0	1.0	1	1.108	0.898				
	95	1	0.0	0.0	0.0	0.0	1	1.003	0.0	1.0	1	1.108	0.898				
	96	1	0.0	0.0	0.0	0.0	1	1.003	0.0	1.0	1	1.108	0.898				
	97	1	0.0	0.0	0.0	0.0	1	1.003	0.0	1.0	1	1.108	0.898				
	98	1	0.0	0.0	0.0	0.0	1	1.003	0.0	1.0	1	1.108	0.898				
	99	1	0.0	0.0	0.0	0.0	1	1.003	0.0	1.0	1	1.108	0.898				
	100	1	-19.81	21.24	0.0	0.0	3	1.003	0.0	1.0	1	1.108	0.898				
	101	1	107.66	-82.5	0.0	0.0	3	1.003	0.0	1.0	1	1.108	0.898				
	102	1	23.75	26.25	0.0	0.0	2	1.003	0.0	1.0	1	1.108	0.898				
	103	2	54.620000000000005	0.0	0.0	0.0	2	1.003	0.0	1.0	1	1.108	0.898				
	104	1	167.6	-8.03	0.0	-91.0	2	1.003	0.0	1.0	1	1.108	0.898				
	105	1	14.279999999999998	-0.11	0.0	0.0	3	1.003	0.0	1.0	1	1.108	0.898				
	106	1	3.7800000000000002	0.0	0.0	0.0	3	1.003	0.0	1.0	1	1.108	0.898				
	107	1	131.26	13.819999999999999	0.0	0.0	2	1.003	0.0	1.0	1	1.108	0.898				
	108	1	28.610000000000003	-310.03	0.0	-327.0	2	1.003	0.0	1.0	1	1.108	0.898				
	109	1	427.13	35.78	0.0	-130.0	2	1.003	0.0	1.0	1	1.108	0.898				
	110	1	19.35	21.06	0.0	0.0	2	1.003	0.0	1.0	1	1.108	0.898				
	111	1	-99.3	63.54	0.0	0.0	3	1.003	0.0	1.0	1	1.108	0.898				
	112	2	54.11	0.0	0.0	0.0	3	1.003	0.0	1.0	1	1.108	0.898				
	113	1	75.99	0.0	0.0	-128.0	3	1.003	0.0	1.0	1	1.108	0.898				
	114	1	0.0	0.0	0.0	-91.0	3	1.003	0.0	1.0	1	1.108	0.898				
	115	1	-0.38	115.26	0.0	-91.0	3	1.003	0.0	1.0	1	1.108	0.898				
	116	2	51.07000000000001	0.0	0.0	0.0	3	1.003	0.0	1.0	1	1.108	0.898				
	117	1	438.1600000000001	54.83	0.0	-32.0	3	1.003	0.0	1.0	1	1.108	0.898				
	118	2	54.76	0.0	0.0	0.0	3	1.003	0.0	1.0	1	1.108	0.898				
	119	1	2650.16	3818.43	0.0	1500.0	3	1.003	0.0	1.0	1	1.108	0.898				
	120	1	0.0	0.0	0.0	0.0	3	1.003	0.0	1.0	1	1.108	0.898				
	121	1	0.0	0.0	0.0	0.0	3	1.003	0.0	1.0	1	1.108	0.898				
	122	1	0.0	0.0	0.0	0.0	3	1.003	0.0	1.0	1	1.108	0.898				
	123	1	0.0	0.0	0.0	0.0	3	1.003	0.0	1.0	1	1.108	0.898				
	124	1	0.0	0.0	0.0	0.0	3	1.003	0.0	1.0	1	1.108	0.898				
	125	1	0.0	0.0	0.0	0.0	3	1.003	0.0	1.0	1	1.108	0.898				
	126	1	0.0	0.0	0.0	0.0	3	1.003	0.0	1.0	1	1.108	0.898				
	127	1	0.0	0.0	0.0	0.0	3	1.003	0.0	1.0	1	1.108	0.898				
	128	1	0.0	0.0	0.0	0.0	3	1.003	0.0	1.0	1	1.108	0.898				
	129	1	0.0	0.0	0.0	0.0	3	1.003	0.0	1.0	1	1.108	0.898				
	130	1	0.0	0.0	0.0	0.0	3	1.003	0.0	1.0	1	1.108	0.898				
	131	1	0.0	0.0	0.0	0.0	3	1.003	0.0	1.0	1	1.108	0.898				
	132	1	0.0	0.0	0.0	0.0	2	1.003	0.0	1.0	1	1.108	0.898				
	133	1	0.0	0.0	0.0	0.0	2	1.003	0.0	1.0	1	1.108	0.898				
	134	1	0.0	0.0	0.0	0.0	2	1.003	0.0	1.0	1	1.108	0.898				
	135	1	0.0	0.0	0.0	0.0	2	1.003	0.0	1.0	1	1.108	0.898				
	136	1	414.7200000000001	17.91	0.0	0.0	2	1.003	0.0	1.0	1	1.108	0.898				
	137	1	95.26	17.51	0.0	0.0	2	1.003	0.0	1.0	1	1.108	0.898				
	138	2	46.32	0.0	0.0	0.0	2	1.003	0.0	1.0	1	1.108	0.898				
	139	1	471.1700000000001	-10.81	0.0	-319.0	2	1.003	0.0	1.0	1	1.108	0.898				
	140	2	48.52	0.0	0.0	0.0	2	1.003	0.0	1.0	1	1.108	0.898				
	141	1	1730.2800000000002	609.69	0.0	0.0	2	1.003	0.0	1.0	1	1.108	0.898				
	142	1	107.93000000000002	-26.179999999999996	0.0	0.0	2	1.003	0.0	1.0	1	1.108	0.898				
	143	1	174.36	60.86	0.0	0.0	2	1.003	0.0	1.0	1	1.108	0.898				
	144	2	45.88	0.0	0.0	0.0	2	1.003	0.0	1.0	1	1.108	0.898				
	145	1	1540.95	1238.88	0.0	400.0	2	1.003	0.0	1.0	1	1.108	0.898				
	146	1	0.0	0.0	0.0	0.0	2	1.003	0.0	1.0	1	1.108	0.898				
	147	1	0.0	0.0	0.0	-196.0	2	1.003	0.0	1.0	1	1.108	0.898				
	148	2	53.67999999999999	0.0	0.0	0.0	2	1.003	0.0	1.0	1	1.108	0.898				
	149	2	49.94	0.0	0.0	0.0	2	1.003	0.0	1.0	1	1.108	0.898				
	150	1	1578.86	75.65	0.0	0.0	2	1.003	0.0	1.0	1	1.108	0.898				
	151	1	559.23	78.48	0.0	0.0	2	1.003	0.0	1.0	1	1.108	0.898				
	152	1	191.17	45.01	0.0	0.0	2	1.003	0.0	1.0	1	1.108	0.898				
	153	1	0.0	0.0	0.0	0.0	2	1.003	0.0	1.0	1	1.108	0.898				
	154	1	511.38000000000005	-10.66	0.0	-190.0	2	1.003	0.0	1.0	1	1.108	0.898				
	155	1	210.21999999999997	74.94	0.0	-60.0	1	1.003	0.0	1.0	1	1.108	0.898				
	156	1	16.91	12.04	0.0	0.0	1	1.003	0.0	1.0	1	1.108	0.898				
	157	1	79.39	-8.29	0.0	0.0	1	1.003	0.0	1.0	1	1.108	0.898				
	158	1	53.010000000000005	41.07	0.0	-220.00000000000003	1	1.003	0.0	1.0	1	1.108	0.898				
	159	2	53.7	0.0	0.0	0.0	1	1.003	0.0	1.0	1	1.108	0.898				
	160	1	-29.29	11.72	0.0	0.0	1	1.003	0.0	1.0	1	1.108	0.898				
	161	1	137.66	104.12000000000002	0.0	0.0	1	1.003	0.0	1.0	1	1.108	0.898				
	162	2	47.79	0.0	0.0	0.0	1	1.003	0.0	1.0	1	1.108	0.898				
	163	1	0.0	0.0	0.0	0.0	1	1.003	0.0	1.0	1	1.108	0.898				
	164	1	15.049999999999999	12.06	0.0	-18.0	1	1.003	0.0	1.0	1	1.108	0.898				
	165	1	73.31	70.0	0.0	0.0	1	1.003	0.0	1.0	1	1.108	0.898				
	166	1	171.78	-39.78	0.0	-50.0	1	1.003	0.0	1.0	1	1.108	0.898				
	167	1	95.68	75.76	0.0	0.0	1	1.003	0.0	1.0	1	1.108	0.898				
	168	1	0.0	0.0	0.0	0.0	3	1.003	0.0	1.0	1	1.108	0.898				
	169	1	0.0	0.0	0.0	0.0	3	1.003	0.0	1.0	1	1.108	0.898				
	170	1	0.0	0.0	0.0	0.0	3	1.003	0.0	1.0	1	1.108	0.898				
	171	1	0.0	0.0	0.0	0.0	3	1.003	0.0	1.0	1	1.108	0.898				
	172	1	0.0	0.0	0.0	0.0	3	1.003	0.0	1.0	1	1.108	0.898				
	173	1	0.0	0.0	0.0	0.0	3	1.003	0.0	1.0	1	1.108	0.898				
	174	1	0.0	0.0	0.0	0.0	2	1.003	0.0	1.0	1	1.108	0.898				
	175	1	0.0	0.0	0.0	0.0	2	1.003	0.0	1.0	1	1.108	0.898				
	176	1	0.0	0.0	0.0	0.0	2	1.003	0.0	1.0	1	1.108	0.898				
	177	1	0.0	0.0	0.0	0.0	2	1.003	0.0	1.0	1	1.108	0.898				
	178	1	0.0	0.0	0.0	0.0	2	1.003	0.0	1.0	1	1.108	0.898				
	179	1	0.0	0.0	0.0	0.0	2	1.003	0.0	1.0	1	1.108	0.898				
	180	1	0.0	0.0	0.0	-220.00000000000003	1	1.003	0.0	1.0	1	1.108	0.898				
];

%% generator data
%    bus    Pg    Qg    Qmax    Qmin    Vg    mBase    status    Pmax    Pmin    Pc1    Pc2    Qc1min    Qc1max    Qc2min    Qc2max    ramp_agc    ramp_10    ramp_30    ramp_q    apf
mpc.gen = [
	4	994.0850000000002	-7.9399999999999995	320.28	-336.16	1.003	1600.0	1	1683.12	305.05	0.0	0.0	0.0	0.0	0.0	0.0	0.0	0.0	0.0	0.0	1683.1216				
	6	1084.63	-30.870000000000005	378.83	-440.56999999999994	1.003	2100.0	1	1938.1800000000003	231.07999999999998	0.0	0.0	0.0	0.0	0.0	0.0	0.0	0.0	0.0	0.0	1938.1774				
	9	2652.8	141.81	701.97	-418.35	1.003	4300.0	1	4498.26	807.3399999999999	0.0	0.0	0.0	0.0	0.0	0.0	0.0	0.0	0.0	0.0	4498.2554				
	11	2402.61	-17.94	899.03	-934.91	1.003	4100.0	1	3956.96	848.26	0.0	0.0	0.0	0.0	0.0	0.0	0.0	0.0	0.0	0.0	3956.9636				
	13	1929.025	207.49	697.21	-282.23	1.003	3400.0	1	3299.94	558.11	0.0	0.0	0.0	0.0	0.0	0.0	0.0	0.0	0.0	0.0	3299.9353				
	15	3479.4250000000006	361.045	1405.28	-683.19	1.003	5300.0	1	5393.53	1565.32	0.0	0.0	0.0	0.0	0.0	0.0	0.0	0.0	0.0	0.0	5393.5254				
	18	1305.43	23.19	319.0	-272.62	1.003	2000.0	1	2074.45	536.41	0.0	0.0	0.0	0.0	0.0	0.0	0.0	0.0	0.0	0.0	2074.4534				
	30	6392.915	11.185	4070.83	-4048.46	1.003	8900.0	1	9757.06	3028.77	0.0	0.0	0.0	0.0	0.0	0.0	0.0	0.0	0.0	0.0	9757.0576				
	35	5083.72	1136.34	5544.98	-3272.2999999999997	1.003	9000.0	1	8718.16	1449.28	0.0	0.0	0.0	0.0	0.0	0.0	0.0	0.0	0.0	0.0	8718.1563				
	36	2254.335	129.4	652.92	-394.12	1.003	3300.0	1	3493.62	1015.05	0.0	0.0	0.0	0.0	0.0	0.0	0.0	0.0	0.0	0.0	3493.625				
	40	191.725	48.255	247.18999999999997	-150.68	1.003	400.0	1	362.6	20.85	0.0	0.0	0.0	0.0	0.0	0.0	0.0	0.0	0.0	0.0	362.5961				
	43	400.44500000000005	71.525	311.04	-167.99	1.003	650.0	1	673.96	126.93	0.0	0.0	0.0	0.0	0.0	0.0	0.0	0.0	0.0	0.0	673.957				
	45	2010.625	89.785	765.95	-586.38	1.003	3600.0	1	3528.4	492.8500000000001	0.0	0.0	0.0	0.0	0.0	0.0	0.0	0.0	0.0	0.0	3528.4009				
	47	152.35	0.69	100.88	-99.5	1.003	220.0	1	233.68	71.02	0.0	0.0	0.0	0.0	0.0	0.0	0.0	0.0	0.0	0.0	233.6808				
	65	2932.815	353.385	1553.56	-846.79	1.003	5800.0	1	5459.92	405.71000000000004	0.0	0.0	0.0	0.0	0.0	0.0	0.0	0.0	0.0	0.0	5459.918				
	70	1239.795	-79.99	642.85	-802.8299999999999	1.003	2600.0	1	2377.38	102.21000000000001	0.0	0.0	0.0	0.0	0.0	0.0	0.0	0.0	0.0	0.0	2377.3799				
	77	7403.065	135.05	2448.15	-2178.05	1.003	10400.0	1	11165.05	3641.0800000000004	0.0	0.0	0.0	0.0	0.0	0.0	0.0	0.0	0.0	0.0	11165.0508				
	79	10354.215	2358.21	6030.37	-1313.95	1.003	20000.0	1	18208.22	2500.21	0.0	0.0	0.0	0.0	0.0	0.0	0.0	0.0	0.0	0.0	18208.2246				
	103	737.535	-14.145	327.94	-356.23	1.003	1500.0	1	1359.89	115.18000000000002	0.0	0.0	0.0	0.0	0.0	0.0	0.0	0.0	0.0	0.0	1359.8911				
	112	1328.115	-16.82	421.04999999999995	-454.69	1.003	2100.0	1	2247.11	409.11999999999995	0.0	0.0	0.0	0.0	0.0	0.0	0.0	0.0	0.0	0.0	2247.1069				
	116	805.425	-7.445	275.09	-289.98	1.003	1200.0	1	1298.69	312.16	0.0	0.0	0.0	0.0	0.0	0.0	0.0	0.0	0.0	0.0	1298.6926				
	118	4482.46	1027.675	2735.8	-680.45	1.003	6900.0	1	7386.7699999999995	1578.15	0.0	0.0	0.0	0.0	0.0	0.0	0.0	0.0	0.0	0.0	7386.77				
	138	1178.09	-18.965	307.09	-345.02	1.003	2000.0	1	2043.61	312.57	0.0	0.0	0.0	0.0	0.0	0.0	0.0	0.0	0.0	0.0	2043.6079				
	140	3469.755	594.35	2149.72	-961.0199999999999	1.003	6400.0	1	6145.22	794.29	0.0	0.0	0.0	0.0	0.0	0.0	0.0	0.0	0.0	0.0	6145.2231				
	144	1866.725	262.135	856.6	-332.33	1.003	3400.0	1	3135.12	598.33	0.0	0.0	0.0	0.0	0.0	0.0	0.0	0.0	0.0	0.0	3135.1221				
	148	2041.235	252.83	746.55	-240.89000000000001	1.003	3400.0	1	3402.54	679.93	0.0	0.0	0.0	0.0	0.0	0.0	0.0	0.0	0.0	0.0	3402.5374				
	149	2590.31	-21.69	582.17	-625.55	1.003	4400.0	1	4251.85	928.7699999999999	0.0	0.0	0.0	0.0	0.0	0.0	0.0	0.0	0.0	0.0	4251.854				
	159	2214.085	697.35	10604.58	-9209.88	1.003	3300.0	1	3483.05	945.12	0.0	0.0	0.0	0.0	0.0	0.0	0.0	0.0	0.0	0.0	3483.0479				
	162	501.62500000000006	-587.665	9359.49	-10534.82	1.003	900.0	1	839.66	163.59	0.0	0.0	0.0	0.0	0.0	0.0	0.0	0.0	0.0	0.0	839.6633				
];

%% branch data
%    f_bus    t_bus    r    x    b    rateA    rateB    rateC    ratio    angle    status    angmin    angmax
mpc.branch = [
	2	3	0.0	0.0146	0.0	2196.0	2196.0	2196.0	0	0	1	-29.999999999999996	29.999999999999996								
	2	4	0.0	0.0173	0.0	1853.0	1853.0	1853.0	0.9545	0.0	1	-29.999999999999996	29.999999999999996								
	3	8	0.00179	0.01988	2.576	1605.9999999999998	1605.9999999999998	1605.9999999999998	0	0	1	-29.999999999999996	29.999999999999996								
	5	6	0.0	0.01238	0.0	2589.0	2589.0	2589.0	0	0	1	-29.999999999999996	29.999999999999996								
	5	11	0.0	0.015	0.0	2137.0	2137.0	2137.0	0	0	1	-29.999999999999996	29.999999999999996								
	17	5	0.00977	0.11	2.0	291.0	291.0	291.0	0	0	1	-29.999999999999996	29.999999999999996								
	5	160	0.00811	0.1369	2.4348	234.0	234.0	234.0	0	0	1	-29.999999999999996	29.999999999999996								
	7	8	0.0	0.011	0.0	2914.0	2914.0	2914.0	1.063	0.0	1	-29.999999999999996	29.999999999999996								
	7	8	0.0	0.011	0.0	2914.0	2914.0	2914.0	1.063	0.0	1	-29.999999999999996	29.999999999999996								
	7	28	0.0	0.00408	0.0	5501.81	7856.0	7856.0	0	0	1	-29.999999999999996	29.999999999999996								
	8	9	0.0	0.0059	0.0	5432.0	5432.0	5432.0	0	0	1	-29.999999999999996	29.999999999999996								
	8	10	0.00028	0.0138	0.0	2322.0	2322.0	2322.0	0	0	1	-29.999999999999996	29.999999999999996								
	8	10	0.00029	0.0139	0.0	2306.0	2306.0	2306.0	0	0	1	-29.999999999999996	29.999999999999996								
	8	17	0.0005	0.0053	0.0882	2202.27	6021.0	6021.0	0	0	1	-29.999999999999996	29.999999999999996								
	163	8	0.0048	0.0436	0.7078	731.0	731.0	731.0	0	0	1	-29.999999999999996	29.999999999999996								
	12	13	0.0	0.00666	0.0	4813.0	4813.0	4813.0	1.08	0.0	1	-29.999999999999996	29.999999999999996								
	12	20	0.0	0.00634	0.0	5055.0	5055.0	5055.0	0	0	1	-29.999999999999996	29.999999999999996								
	12	22	0.0	0.01188	0.0	2698.0	2698.0	2698.0	0	0	1	-29.999999999999996	29.999999999999996								
	12	139	0.0028	0.0211	1.0194	1506.0	1506.0	1506.0	0	0	1	-29.999999999999996	29.999999999999996								
	21	14	0.0	0.00634	0.0	5055.0	5055.0	5055.0	0	0	1	-29.999999999999996	29.999999999999996								
	14	24	0.0	0.00826	0.0	3879.9999999999995	3879.9999999999995	3879.9999999999995	0	0	1	-29.999999999999996	29.999999999999996								
	14	26	0.0	0.01795	0.0	1786.0	1786.0	1786.0	0	0	1	-29.999999999999996	29.999999999999996								
	29	14	0.0	0.00612	0.0	5237.0	5237.0	5237.0	0	0	1	-29.999999999999996	29.999999999999996								
	16	15	6.0e-5	0.00495	0.0	6473.999999999999	6473.999999999999	6473.999999999999	1.1061	0.0	1	-29.999999999999996	29.999999999999996								
	16	19	0.0004	0.0096	0.9038	3336.0	3336.0	3336.0	0	0	1	-29.999999999999996	29.999999999999996								
	16	19	0.0004	0.0096	0.9038	3336.0	3336.0	3336.0	0	0	1	-29.999999999999996	29.999999999999996								
	16	136	0.00259	0.02967	2.153	1077.0	1077.0	1077.0	0	0	1	-29.999999999999996	29.999999999999996								
	16	136	0.00259	0.02967	2.153	1077.0	1077.0	1077.0	0	0	1	-29.999999999999996	29.999999999999996								
	17	18	0.0	0.006	0.0	5342.0	5342.0	5342.0	1.0435	0.0	1	-29.999999999999996	29.999999999999996								
	23	19	0.0	0.01188	0.0	2698.0	2698.0	2698.0	0	0	1	-29.999999999999996	29.999999999999996								
	25	19	0.0	0.00826	0.0	3879.9999999999995	3879.9999999999995	3879.9999999999995	0	0	1	-29.999999999999996	29.999999999999996								
	20	21	0.00077	0.01804	1.39842	1775.0	1775.0	1775.0	0	0	1	-29.999999999999996	29.999999999999996								
	22	23	0.00241	0.05865	4.8656	546.0	546.0	546.0	0	0	1	-29.999999999999996	29.999999999999996								
	24	25	0.00179	0.04244	3.3922	755.0	755.0	755.0	0	0	1	-29.999999999999996	29.999999999999996								
	26	27	0.00207	0.04959	3.9516	646.0	646.0	646.0	0	0	1	-29.999999999999996	29.999999999999996								
	27	139	0.0	0.01795	0.0	1786.0	1786.0	1786.0	0	0	1	-29.999999999999996	29.999999999999996								
	28	29	0.00177	0.04189	3.3446	765.0	765.0	765.0	0	0	1	-29.999999999999996	29.999999999999996								
	31	30	0.0	0.0015	0.0	21366.0	21366.0	21366.0	1.05	0.0	1	-29.999999999999996	29.999999999999996								
	31	32	0.0035	0.07	4.606	458.0	458.0	458.0	0	0	1	-29.999999999999996	29.999999999999996								
	31	80	0.00083	0.0239	3.3	1341.0	1341.0	1341.0	0	0	1	-29.999999999999996	29.999999999999996								
	32	33	0.0	0.01	0.0	3204.9999999999995	3204.9999999999995	3204.9999999999995	1.1	0.0	1	-29.999999999999996	29.999999999999996								
	33	34	0.002	0.02	0.8	855.66	1595.0	1595.0	0	0	1	-29.999999999999996	29.999999999999996								
	34	35	0.0	0.002	0.0	16025.0	16025.0	16025.0	0	0	1	-29.999999999999996	29.999999999999996								
	85	36	0.0	0.0046	0.0	6968.000000000001	6968.000000000001	6968.000000000001	0	0	1	-29.999999999999996	29.999999999999996								
	37	38	0.00074	0.01861	1.40264	1721.0	1721.0	1721.0	0	0	1	-29.999999999999996	29.999999999999996								
	37	56	0.00082	0.01668	1.18802	1920.0	1920.0	1920.0	0	0	1	-29.999999999999996	29.999999999999996								
	37	64	0.0	0.00159	0.12002	5755.18	20157.0	20157.0	0	0	1	-29.999999999999996	29.999999999999996								
	37	64	0.0	0.00159	0.12002	5757.14	20157.0	20157.0	0	0	1	-29.999999999999996	29.999999999999996								
	38	48	0.00013	0.00693	0.0	4624.0	4624.0	4624.0	1.05	0.0	1	-29.999999999999996	29.999999999999996								
	39	40	0.0005	0.0238	0.0	1347.0	1347.0	1347.0	0	0	1	-29.999999999999996	29.999999999999996								
	39	46	0.00221	0.03346	0.07338	892.46	956.0	956.0	0	0	1	-29.999999999999996	29.999999999999996								
	39	48	0.0029	0.038	0.0824	841.0	841.0	841.0	0	0	1	-29.999999999999996	29.999999999999996								
	39	59	0.00309	0.04677	0.1008	684.0	684.0	684.0	0	0	1	-29.999999999999996	29.999999999999996								
	39	60	0.00226	0.03422	0.07506	832.1	935.0	935.0	0	0	1	-29.999999999999996	29.999999999999996								
	55	41	0.00047	0.00723	0.01624	754.41	4424.0	4424.0	0	0	1	-29.999999999999996	29.999999999999996								
	41	58	0.00035	0.00536	0.01204	822.5799999999999	5967.0	5967.0	0	0	1	-29.999999999999996	29.999999999999996								
	42	43	0.00058	0.02535	0.0	1264.0	1264.0	1264.0	1.0491	0.0	1	-29.999999999999996	29.999999999999996								
	50	42	0.0022	0.03422	0.07716	761.15	935.0	935.0	0	0	1	-29.999999999999996	29.999999999999996								
	50	42	0.00238	0.03669	0.08284	872.0000000000001	872.0000000000001	872.0000000000001	0	0	1	-29.999999999999996	29.999999999999996								
	57	42	0.00201	0.03074	0.06886	768.89	1041.0	1041.0	0	0	1	-29.999999999999996	29.999999999999996								
	42	58	0.00281	0.04296	0.09648	745.0	745.0	745.0	0	0	1	-29.999999999999996	29.999999999999996								
	44	45	0.0	0.0052	0.0	6164.0	6164.0	6164.0	1.025	0.0	1	-29.999999999999996	29.999999999999996								
	44	160	0.0018	0.0245	0.4392	1305.0	1305.0	1305.0	0	0	1	-29.999999999999996	29.999999999999996								
	44	160	0.0018	0.0245	0.4392	1305.0	1305.0	1305.0	0	0	1	-29.999999999999996	29.999999999999996								
	48	46	0.00029	0.00434	0.0095	841.15	7369.0	7369.0	0	0	1	-29.999999999999996	29.999999999999996								
	48	47	0.00499	0.11473	0.0	280.0	280.0	280.0	1.0478	0.0	1	-29.999999999999996	29.999999999999996								
	49	48	0.00026	0.01386	0.0	2312.0	2312.0	2312.0	1.05	0.0	1	-29.999999999999996	29.999999999999996								
	48	55	0.00229	0.01583	0.0306	855.66	2004.0	2004.0	0	0	1	-29.999999999999996	29.999999999999996								
	48	55	0.00229	0.01583	0.0306	905.33	2004.0	2004.0	0	0	1	-29.999999999999996	29.999999999999996								
	48	59	0.00141	0.00967	0.0194	772.89	3279.9999999999995	3279.9999999999995	0	0	1	-29.999999999999996	29.999999999999996								
	48	59	0.00141	0.00967	0.0194	912.29	3279.9999999999995	3279.9999999999995	0	0	1	-29.999999999999996	29.999999999999996								
	48	59	0.00161	0.00971	0.01928	763.48	3257.0	3257.0	0	0	1	-29.999999999999996	29.999999999999996								
	48	59	0.00161	0.00971	0.01928	911.69	3257.0	3257.0	0	0	1	-29.999999999999996	29.999999999999996								
	48	60	0.00027	0.00393	0.00918	837.06	8136.0	8136.0	0	0	1	-29.999999999999996	29.999999999999996								
	48	60	0.00027	0.00393	0.00918	783.45	8136.0	8136.0	0	0	1	-29.999999999999996	29.999999999999996								
	48	60	0.00027	0.00393	0.00918	804.85	8136.0	8136.0	0	0	1	-29.999999999999996	29.999999999999996								
	48	62	0.00138	0.01116	0.0247	758.56	2851.0	2851.0	0	0	1	-29.999999999999996	29.999999999999996								
	48	62	0.00138	0.01116	0.0247	759.88	2851.0	2851.0	0	0	1	-29.999999999999996	29.999999999999996								
	64	49	0.00083	0.01884	1.66668	1700.0	1700.0	1700.0	0	0	1	-29.999999999999996	29.999999999999996								
	50	57	0.00037	0.00366	0.0083	880.09	8713.0	8713.0	0	0	1	-29.999999999999996	29.999999999999996								
	50	58	0.00055	0.00586	0.01246	835.5	5446.0	5446.0	0	0	1	-29.999999999999996	29.999999999999996								
	52	51	0.00059	0.01491	0.0	2148.0	2148.0	2148.0	1.0017	0.0	1	-29.999999999999996	29.999999999999996								
	53	51	0.00059	0.01491	0.0	2148.0	2148.0	2148.0	1.0017	0.0	1	-29.999999999999996	29.999999999999996								
	54	51	0.0003	0.0133	0.0	2410.0	2410.0	2410.0	0	0	1	-29.999999999999996	29.999999999999996								
	54	51	0.0003	0.0134	0.0	2392.0	2392.0	2392.0	0	0	1	-29.999999999999996	29.999999999999996								
	52	63	0.0107	0.07905	0.3667	401.99999999999994	401.99999999999994	401.99999999999994	0	0	1	-29.999999999999996	29.999999999999996								
	53	63	0.0107	0.07905	0.3667	401.99999999999994	401.99999999999994	401.99999999999994	0	0	1	-29.999999999999996	29.999999999999996								
	57	54	0.00073	0.01025	0.02558	765.61	3119.0	3119.0	0	0	1	-29.999999999999996	29.999999999999996								
	57	54	0.00073	0.01025	0.02558	898.03	3119.0	3119.0	0	0	1	-29.999999999999996	29.999999999999996								
	56	55	0.00013	0.01386	0.0	2313.0	2313.0	2313.0	1.0106	0.0	1	-29.999999999999996	29.999999999999996								
	56	55	0.00013	0.01386	0.0	2313.0	2313.0	2313.0	1.0106	0.0	1	-29.999999999999996	29.999999999999996								
	55	58	0.00119	0.01244	0.02798	856.67	2565.0	2565.0	0	0	1	-29.999999999999996	29.999999999999996								
	55	58	0.00119	0.01244	0.02798	852.17	2565.0	2565.0	0	0	1	-29.999999999999996	29.999999999999996								
	62	55	0.00128	0.00979	0.0212	868.54	3246.0	3246.0	0	0	1	-29.999999999999996	29.999999999999996								
	57	58	0.0011	0.01189	0.02514	908.69	2684.0	2684.0	0	0	1	-29.999999999999996	29.999999999999996								
	60	61	0.0	0.00115	0.0	27869.0	27869.0	27869.0	1.0133	0.0	1	-29.999999999999996	29.999999999999996								
	137	61	0.0014	0.0264	0.102	848.66	1213.0	1213.0	0	0	1	-29.999999999999996	29.999999999999996								
	150	61	0.00065	0.01187	0.04672	913.9900000000001	2696.0	2696.0	0	0	1	-29.999999999999996	29.999999999999996								
	150	61	0.00065	0.01187	0.04672	773.57	2696.0	2696.0	0	0	1	-29.999999999999996	29.999999999999996								
	64	63	0.0002	0.02338	0.0	1371.0	1371.0	1371.0	0.9789	0.0	1	-29.999999999999996	29.999999999999996								
	139	64	0.00179	0.02524	0.53546	1267.0	1267.0	1267.0	0	0	1	-29.999999999999996	29.999999999999996								
	139	64	0.00179	0.02524	0.53546	1267.0	1267.0	1267.0	0	0	1	-29.999999999999996	29.999999999999996								
	142	64	0.0002	0.0041	0.2962	5830.69	7808.0	7808.0	0	0	1	-29.999999999999996	29.999999999999996								
	66	65	0.0	0.005	0.0	6409.999999999999	6409.999999999999	6409.999999999999	1.09	0.0	1	-29.999999999999996	29.999999999999996								
	78	66	0.0007	0.074	4.87	434.0	434.0	434.0	0	0	1	-29.999999999999996	29.999999999999996								
	68	67	0.00089	0.0299	0.0	1072.0	1072.0	1072.0	0.9873	0.0	1	-29.999999999999996	29.999999999999996								
	69	68	0.0002	0.01181	0.0	2714.0	2714.0	2714.0	1.0238	0.0	1	-29.999999999999996	29.999999999999996								
	69	68	9.0e-5	0.00735	0.0	4361.0	4361.0	4361.0	1.0238	0.0	1	-29.999999999999996	29.999999999999996								
	68	70	0.0	0.01034	0.0	3100.0	3100.0	3100.0	1.0455	0.0	1	-29.999999999999996	29.999999999999996								
	68	71	6.0e-5	0.00131	0.00378	828.29	24439.0	24439.0	0	0	1	-29.999999999999996	29.999999999999996								
	68	71	6.0e-5	0.00116	0.00332	776.56	27592.0	27592.0	0	0	1	-29.999999999999996	29.999999999999996								
	69	72	1.0e-5	0.0003	0.01434	5711.04	106769.0	106769.0	0	0	1	-29.999999999999996	29.999999999999996								
	69	72	1.0e-5	0.0003	0.01844	5829.8	106769.0	106769.0	0	0	1	-29.999999999999996	29.999999999999996								
	69	76	0.00023	0.00451	0.3332	5923.31	7097.0	7097.0	0	0	1	-29.999999999999996	29.999999999999996								
	69	76	0.0002	0.00446	0.305	6169.99	7179.000000000001	7179.000000000001	0	0	1	-29.999999999999996	29.999999999999996								
	72	71	0.0	0.00221	0.0	14502.000000000002	14502.000000000002	14502.000000000002	1.0234	0.0	1	-29.999999999999996	29.999999999999996								
	75	73	0.00179	0.01405	3.68	2263.0	2263.0	2263.0	0	0	1	-29.999999999999996	29.999999999999996								
	78	74	0.00113	0.02069	1.85526	1547.0	1547.0	1547.0	0	0	1	-29.999999999999996	29.999999999999996								
	75	76	0.00196	0.03304	1.88	969.0	969.0	969.0	0	0	1	-29.999999999999996	29.999999999999996								
	75	78	0.00142	0.02258	1.88	1417.0	1417.0	1417.0	0	0	1	-29.999999999999996	29.999999999999996								
	76	77	0.0	0.00375	0.0	8547.0	8547.0	8547.0	1.0977	0.0	1	-29.999999999999996	29.999999999999996								
	78	76	0.0012	0.02316	1.7152	1382.0	1382.0	1382.0	0	0	1	-29.999999999999996	29.999999999999996								
	78	76	0.0003	0.02	3.6	1603.0	1603.0	1603.0	0	0	1	-29.999999999999996	29.999999999999996								
	82	76	0.00063	0.01412	1.09756	2268.0	2268.0	2268.0	0	0	1	-29.999999999999996	29.999999999999996								
	82	76	0.00109	0.02408	1.55542	1330.0	1330.0	1330.0	0	0	1	-29.999999999999996	29.999999999999996								
	82	76	0.00108	0.02409	1.55348	1330.0	1330.0	1330.0	0	0	1	-29.999999999999996	29.999999999999996								
	80	78	0.0002	0.0082	1.3	3908.0	3908.0	3908.0	0	0	1	-29.999999999999996	29.999999999999996								
	80	78	0.0002	0.0082	1.3	3908.0	3908.0	3908.0	0	0	1	-29.999999999999996	29.999999999999996								
	80	79	0.0	0.0025	0.0	12819.999999999998	12819.999999999998	12819.999999999998	1.066	0.0	1	-29.999999999999996	29.999999999999996								
	81	99	0.00264	0.05356	5.29066	598.0	598.0	598.0	0	0	1	-29.999999999999996	29.999999999999996								
	81	180	0.0	0.02667	0.0	1202.0	1202.0	1202.0	0	0	1	-29.999999999999996	29.999999999999996								
	82	87	0.00041	0.00737	0.72694	4342.0	4342.0	4342.0	0	0	1	-29.999999999999996	29.999999999999996								
	82	91	0.00066	0.01266	0.95976	2529.0	2529.0	2529.0	0	0	1	-29.999999999999996	29.999999999999996								
	82	95	0.00066	0.01266	0.95976	2529.0	2529.0	2529.0	0	0	1	-29.999999999999996	29.999999999999996								
	83	89	0.00072	0.01382	1.27572	2316.0	2316.0	2316.0	0	0	1	-29.999999999999996	29.999999999999996								
	94	83	0.00078	0.01502	1.1381	2131.0	2131.0	2131.0	0	0	1	-29.999999999999996	29.999999999999996								
	98	83	0.00074	0.01413	1.06634	2266.0	2266.0	2266.0	0	0	1	-29.999999999999996	29.999999999999996								
	83	168	0.0	0.0072	0.0	4452.0	4452.0	4452.0	0	0	1	-29.999999999999996	29.999999999999996								
	83	170	0.0	0.00864	0.0	3710.0	3710.0	3710.0	0	0	1	-29.999999999999996	29.999999999999996								
	83	172	0.0	0.01	0.0	3204.9999999999995	3204.9999999999995	3204.9999999999995	0	0	1	-29.999999999999996	29.999999999999996								
	84	85	0.0	0.0072	0.0	4452.0	4452.0	4452.0	1.05	0.0	1	-29.999999999999996	29.999999999999996								
	99	84	0.0	0.02667	0.0	1202.0	1202.0	1202.0	0	0	1	-29.999999999999996	29.999999999999996								
	156	85	0.0062	0.0673	1.1156	475.0	475.0	475.0	0	0	1	-29.999999999999996	29.999999999999996								
	88	86	0.0006	0.01036	1.01456	3089.0	3089.0	3089.0	0	0	1	-29.999999999999996	29.999999999999996								
	90	86	0.00012	0.00238	0.21926	5500.98	13449.0	13449.0	0	0	1	-29.999999999999996	29.999999999999996								
	180	86	0.00122	0.02373	2.2071	1349.0	1349.0	1349.0	0	0	1	-29.999999999999996	29.999999999999996								
	87	88	0.0	0.01263	0.0	2538.0	2538.0	2538.0	0	0	1	-29.999999999999996	29.999999999999996								
	89	90	0.0	0.00858	0.0	3736.0	3736.0	3736.0	0	0	1	-29.999999999999996	29.999999999999996								
	91	92	0.0	0.01263	0.0	2538.0	2538.0	2538.0	0	0	1	-29.999999999999996	29.999999999999996								
	92	93	0.00074	0.01428	1.0822	2242.0	2242.0	2242.0	0	0	1	-29.999999999999996	29.999999999999996								
	93	94	0.0	0.01263	0.0	2538.0	2538.0	2538.0	0	0	1	-29.999999999999996	29.999999999999996								
	95	96	0.0	0.01263	0.0	2538.0	2538.0	2538.0	0	0	1	-29.999999999999996	29.999999999999996								
	96	97	0.00074	0.01428	1.0822	2242.0	2242.0	2242.0	0	0	1	-29.999999999999996	29.999999999999996								
	97	98	0.0	0.01263	0.0	2538.0	2538.0	2538.0	0	0	1	-29.999999999999996	29.999999999999996								
	101	100	0.02482	0.16938	0.20232	188.0	188.0	188.0	0	0	1	-29.999999999999996	29.999999999999996								
	100	117	0.0148	0.10101	0.12066	314.0	314.0	314.0	0	0	1	-29.999999999999996	29.999999999999996								
	101	105	0.01382	0.09268	0.1106	343.0	343.0	343.0	0	0	1	-29.999999999999996	29.999999999999996								
	101	106	0.01668	0.11381	0.13608	279.0	279.0	279.0	0	0	1	-29.999999999999996	29.999999999999996								
	101	113	0.01113	0.06678	0.07286	474.0	474.0	474.0	0	0	1	-29.999999999999996	29.999999999999996								
	101	113	0.0105	0.0654	0.0686	484.0	484.0	484.0	0	0	1	-29.999999999999996	29.999999999999996								
	101	113	0.01105	0.06642	0.0716	476.0	476.0	476.0	0	0	1	-29.999999999999996	29.999999999999996								
	101	117	0.03903	0.27403	0.31072	115.99999999999999	115.99999999999999	115.99999999999999	0	0	1	-29.999999999999996	29.999999999999996								
	102	103	0.0	0.0098	0.0	3271.0	3271.0	3271.0	1.05	0.0	1	-29.999999999999996	29.999999999999996								
	104	102	0.00079	0.01937	1.3285	1654.0	1654.0	1654.0	0	0	1	-29.999999999999996	29.999999999999996								
	102	108	0.00087	0.02087	1.4571	1535.0	1535.0	1535.0	0	0	1	-29.999999999999996	29.999999999999996								
	102	108	0.00087	0.02087	1.4571	1535.0	1535.0	1535.0	0	0	1	-29.999999999999996	29.999999999999996								
	107	104	0.00083	0.01985	0.0	1614.0	1614.0	1614.0	0	0	1	-29.999999999999996	29.999999999999996								
	134	104	0.00093	0.03644	1.3895	880.0000000000001	880.0000000000001	880.0000000000001	0	0	1	-29.999999999999996	29.999999999999996								
	104	135	0.00072	0.016	1.0879	2002.0	2002.0	2002.0	0	0	1	-29.999999999999996	29.999999999999996								
	105	117	0.03058	0.2046	0.24472	155.0	155.0	155.0	0	0	1	-29.999999999999996	29.999999999999996								
	106	117	0.02235	0.16106	0.18342	198.0	198.0	198.0	0	0	1	-29.999999999999996	29.999999999999996								
	107	108	0.00153	0.0147	0.0	2169.0	2169.0	2169.0	0	0	1	-29.999999999999996	29.999999999999996								
	110	107	0.00053	0.01297	0.0	2469.0	2469.0	2469.0	0	0	1	-29.999999999999996	29.999999999999996								
	109	108	0.0	0.0174	0.0	1842.0000000000002	1842.0000000000002	1842.0000000000002	1.119	0.0	1	-29.999999999999996	29.999999999999996								
	109	108	0.0	0.0119	0.0	2694.0	2694.0	2694.0	1.119	0.0	1	-29.999999999999996	29.999999999999996								
	133	108	2.0e-5	0.01331	0.0	2408.0	2408.0	2408.0	0	0	1	-29.999999999999996	29.999999999999996								
	135	108	2.0e-5	0.00998	0.0	3211.9999999999995	3211.9999999999995	3211.9999999999995	0	0	1	-29.999999999999996	29.999999999999996								
	108	174	0.0	0.00935	0.0	3428.0	3428.0	3428.0	0	0	1	-29.999999999999996	29.999999999999996								
	108	176	0.0	0.00944	0.0	3395.0000000000005	3395.0000000000005	3395.0000000000005	0	0	1	-29.999999999999996	29.999999999999996								
	108	178	0.0	0.00935	0.0	3428.0	3428.0	3428.0	0	0	1	-29.999999999999996	29.999999999999996								
	111	120	0.0	0.01	0.0	3204.9999999999995	3204.9999999999995	3204.9999999999995	0	0	1	-29.999999999999996	29.999999999999996								
	173	111	0.0	0.01	0.0	3204.9999999999995	3204.9999999999995	3204.9999999999995	0	0	1	-29.999999999999996	29.999999999999996								
	112	113	0.0	0.02281	0.0	1406.0	1406.0	1406.0	0.9174	0.0	1	-29.999999999999996	29.999999999999996								
	113	114	0.0001	0.0174	0.0	1842.0000000000002	1842.0000000000002	1842.0000000000002	1.119	0.0	1	-29.999999999999996	29.999999999999996								
	114	124	2.0e-5	0.00998	0.0	3211.9999999999995	3211.9999999999995	3211.9999999999995	0	0	1	-29.999999999999996	29.999999999999996								
	114	126	2.0e-5	0.00998	0.0	3211.9999999999995	3211.9999999999995	3211.9999999999995	0	0	1	-29.999999999999996	29.999999999999996								
	169	114	0.0	0.0072	0.0	4452.0	4452.0	4452.0	0	0	1	-29.999999999999996	29.999999999999996								
	171	114	0.0	0.0072	0.0	4452.0	4452.0	4452.0	0	0	1	-29.999999999999996	29.999999999999996								
	125	115	1.0e-5	0.00666	0.0	4813.0	4813.0	4813.0	0	0	1	-29.999999999999996	29.999999999999996								
	127	115	1.0e-5	0.00666	0.0	4813.0	4813.0	4813.0	0	0	1	-29.999999999999996	29.999999999999996								
	115	128	1.0e-5	0.0112	0.0	2862.0	2862.0	2862.0	0	0	1	-29.999999999999996	29.999999999999996								
	115	130	1.0e-5	0.0072	0.0	4452.0	4452.0	4452.0	0	0	1	-29.999999999999996	29.999999999999996								
	116	117	0.0	0.01815	0.0	1766.0	1766.0	1766.0	0.9091	0.0	1	-29.999999999999996	29.999999999999996								
	117	119	0.0002	0.0125	0.0	2564.0	2564.0	2564.0	1.119	0.0	1	-29.999999999999996	29.999999999999996								
	118	119	0.0	0.00448	0.0	7154.000000000001	7154.000000000001	7154.000000000001	0.9452	0.0	1	-29.999999999999996	29.999999999999996								
	123	119	0.0	0.01	0.0	3204.9999999999995	3204.9999999999995	3204.9999999999995	0	0	1	-29.999999999999996	29.999999999999996								
	129	119	1.0e-5	0.0112	0.0	2862.0	2862.0	2862.0	0	0	1	-29.999999999999996	29.999999999999996								
	131	119	1.0e-5	0.0036	0.0	5209.14	8903.0	8903.0	0	0	1	-29.999999999999996	29.999999999999996								
	119	132	1.0e-5	0.00755	0.0	4245.0	4245.0	4245.0	0	0	1	-29.999999999999996	29.999999999999996								
	119	134	1.0e-5	0.01098	0.0	2919.0	2919.0	2919.0	0	0	1	-29.999999999999996	29.999999999999996								
	120	121	0.00076	0.01952	1.8245	1641.0	1641.0	1641.0	0	0	1	-29.999999999999996	29.999999999999996								
	121	122	0.0	0.01	0.0	3204.9999999999995	3204.9999999999995	3204.9999999999995	0	0	1	-29.999999999999996	29.999999999999996								
	122	123	0.00082	0.02119	1.9842	1512.0	1512.0	1512.0	0	0	1	-29.999999999999996	29.999999999999996								
	124	125	0.0014	0.02338	1.475	1369.0	1369.0	1369.0	0	0	1	-29.999999999999996	29.999999999999996								
	126	127	0.0014	0.02338	1.475	1369.0	1369.0	1369.0	0	0	1	-29.999999999999996	29.999999999999996								
	128	129	0.00154	0.03409	2.3114	940.0	940.0	940.0	0	0	1	-29.999999999999996	29.999999999999996								
	130	131	0.00095	0.02102	1.4252	1524.0	1524.0	1524.0	0	0	1	-29.999999999999996	29.999999999999996								
	132	133	0.00165	0.05719	2.4774	561.0	561.0	561.0	0	0	1	-29.999999999999996	29.999999999999996								
	136	152	0.00042	0.00905	0.66794	3538.0000000000005	3538.0000000000005	3538.0000000000005	0	0	1	-29.999999999999996	29.999999999999996								
	137	143	0.0019	0.0258	0.0984	911.65	1239.0	1239.0	0	0	1	-29.999999999999996	29.999999999999996								
	137	150	0.00845	0.07034	0.15954	453.0	453.0	453.0	0	0	1	-29.999999999999996	29.999999999999996								
	138	139	0.0	0.01512	0.0	2120.0	2120.0	2120.0	0.996	0.0	1	-29.999999999999996	29.999999999999996								
	139	142	0.00193	0.02779	4.6712	1151.0	1151.0	1151.0	0	0	1	-29.999999999999996	29.999999999999996								
	147	139	0.00056	0.01415	1.0429	2264.0	2264.0	2264.0	0	0	1	-29.999999999999996	29.999999999999996								
	140	141	0.0	0.00365	0.0	8781.0	8781.0	8781.0	0.9787	0.0	1	-29.999999999999996	29.999999999999996								
	141	143	0.0011	0.0127	0.048	859.21	2515.0	2515.0	0	0	1	-29.999999999999996	29.999999999999996								
	142	145	0.00028	0.00753	0.51736	4254.0	4254.0	4254.0	0	0	1	-29.999999999999996	29.999999999999996								
	142	145	0.00035	0.0075	0.5536	4269.0	4269.0	4269.0	0	0	1	-29.999999999999996	29.999999999999996								
	142	147	0.0019	0.031	4.1402	1032.0	1032.0	1032.0	0	0	1	-29.999999999999996	29.999999999999996								
	142	151	0.0006	0.0128	0.9462	2502.0	2502.0	2502.0	0	0	1	-29.999999999999996	29.999999999999996								
	142	153	0.00044	0.01125	0.8292	2847.0	2847.0	2847.0	0	0	1	-29.999999999999996	29.999999999999996								
	142	153	0.00044	0.01125	0.8292	2847.0	2847.0	2847.0	0	0	1	-29.999999999999996	29.999999999999996								
	146	143	0.00138	0.05399	0.15252	594.0	594.0	594.0	0	0	1	-29.999999999999996	29.999999999999996								
	154	143	0.0032	0.0395	0.144	754.67	809.0	809.0	0	0	1	-29.999999999999996	29.999999999999996								
	144	145	0.0	0.00516	0.0	6211.0	6211.0	6211.0	0.9843	0.0	1	-29.999999999999996	29.999999999999996								
	145	146	0.0	0.005	0.0	6409.999999999999	6409.999999999999	6409.999999999999	0	0	1	-29.999999999999996	29.999999999999996								
	145	151	0.00021	0.00457	0.32336	5370.29	7006.0	7006.0	0	0	1	-29.999999999999996	29.999999999999996								
	147	148	0.0	0.0098	0.0	3271.0	3271.0	3271.0	1.05	0.0	1	-29.999999999999996	29.999999999999996								
	149	150	0.0	0.01026	0.0	3124.0	3124.0	3124.0	0.9871	0.0	1	-29.999999999999996	29.999999999999996								
	150	154	0.00285	0.03649	0.12656	876.0	876.0	876.0	0	0	1	-29.999999999999996	29.999999999999996								
	150	154	0.00138	0.03399	0.11252	873.01	943.0	943.0	0	0	1	-29.999999999999996	29.999999999999996								
	151	152	0.0004	0.0093	0.6856	3443.0	3443.0	3443.0	0	0	1	-29.999999999999996	29.999999999999996								
	153	154	0.0	0.01149	0.0	2790.0	2790.0	2790.0	1.0631	0.0	1	-29.999999999999996	29.999999999999996								
	153	154	0.0	0.01149	0.0	2790.0	2790.0	2790.0	1.0631	0.0	1	-29.999999999999996	29.999999999999996								
	153	154	0.0	0.01149	0.0	2790.0	2790.0	2790.0	1.0631	0.0	1	-29.999999999999996	29.999999999999996								
	175	153	0.0	0.00935	0.0	3428.0	3428.0	3428.0	0	0	1	-29.999999999999996	29.999999999999996								
	177	153	0.0	0.00935	0.0	3428.0	3428.0	3428.0	0	0	1	-29.999999999999996	29.999999999999996								
	179	153	0.0	0.0084	0.0	3815.9999999999995	3815.9999999999995	3815.9999999999995	0	0	1	-29.999999999999996	29.999999999999996								
	156	155	0.0024	0.0332	0.5849	963.0000000000001	963.0000000000001	963.0000000000001	0	0	1	-29.999999999999996	29.999999999999996								
	155	158	0.0052	0.0602	1.01	531.0	531.0	531.0	0	0	1	-29.999999999999996	29.999999999999996								
	155	158	0.0049	0.0537	0.8843	595.0	595.0	595.0	0	0	1	-29.999999999999996	29.999999999999996								
	155	160	0.0017	0.0225	0.3992	1421.0	1421.0	1421.0	0	0	1	-29.999999999999996	29.999999999999996								
	155	160	0.0021	0.0238	0.3845	1342.0	1342.0	1342.0	0	0	1	-29.999999999999996	29.999999999999996								
	155	165	0.0012	0.0172	0.2987	1859.0	1859.0	1859.0	0	0	1	-29.999999999999996	29.999999999999996								
	155	167	0.0008	0.0106	0.2039	2253.37	3015.0	3015.0	0	0	1	-29.999999999999996	29.999999999999996								
	156	157	0.0003	0.0181	0.0	1771.0	1771.0	1771.0	0	0	1	-29.999999999999996	29.999999999999996								
	156	167	0.0016	0.0226	0.381	1415.0	1415.0	1415.0	0	0	1	-29.999999999999996	29.999999999999996								
	157	161	0.0108	0.0965	0.3296	331.0	331.0	331.0	0	0	1	-29.999999999999996	29.999999999999996								
	158	159	0.0002	0.0058	0.0	5523.0	5523.0	5523.0	0.9855	0.0	1	-29.999999999999996	29.999999999999996								
	158	164	0.0096	0.0878	1.4265	363.0	363.0	363.0	0	0	1	-29.999999999999996	29.999999999999996								
	158	165	0.0034	0.0392	0.6524	815.0	815.0	815.0	0	0	1	-29.999999999999996	29.999999999999996								
	158	166	0.0034	0.0374	0.6208	853.9999999999999	853.9999999999999	853.9999999999999	0	0	1	-29.999999999999996	29.999999999999996								
	158	166	0.0034	0.0372	0.6182	858.0	858.0	858.0	0	0	1	-29.999999999999996	29.999999999999996								
	160	166	0.0038	0.034	0.5824	936.9999999999999	936.9999999999999	936.9999999999999	0	0	1	-29.999999999999996	29.999999999999996								
	160	166	0.0032	0.0349	0.5722	915.0	915.0	915.0	0	0	1	-29.999999999999996	29.999999999999996								
	161	162	0.0005	0.0141	0.0	2272.0	2272.0	2272.0	1.0588	0.0	1	-29.999999999999996	29.999999999999996								
	164	163	0.0	0.0195	0.0	1644.0000000000002	1644.0000000000002	1644.0000000000002	0	0	1	-29.999999999999996	29.999999999999996								
	168	169	0.00103	0.02338	1.5804	1370.0	1370.0	1370.0	0	0	1	-29.999999999999996	29.999999999999996								
	170	171	0.00107	0.0247	1.527	1297.0	1297.0	1297.0	0	0	1	-29.999999999999996	29.999999999999996								
	172	173	0.00103	0.0323	2.796	992.0	992.0	992.0	0	0	1	-29.999999999999996	29.999999999999996								
	174	175	0.00123	0.02659	1.98702	1204.0	1204.0	1204.0	0	0	1	-29.999999999999996	29.999999999999996								
	176	177	0.00123	0.02662	1.9888	1203.0	1203.0	1203.0	0	0	1	-29.999999999999996	29.999999999999996								
	178	179	0.00112	0.02517	1.83586	1273.0	1273.0	1273.0	0	0	1	-29.999999999999996	29.999999999999996								
];

%%-----  OPF Data  -----%%
%% cost data
%    1    startup    shutdown    n    x1    y1    ...    xn    yn
%    2    startup    shutdown    n    c(n-1)    ...    c0
mpc.gencost = [
	2	0.0	0.0	2	27.125018	0.0
	2	0.0	0.0	2	25.767823	0.0
	2	0.0	0.0	2	33.458506	0.0
	2	0.0	0.0	2	6.580729	0.0
	2	0.0	0.0	2	31.784817	0.0
	2	0.0	0.0	2	27.844304	0.0
	2	0.0	0.0	2	41.89924200000001	0.0
	2	0.0	0.0	2	26.88751	0.0
	2	0.0	0.0	2	26.647901	0.0
	2	0.0	0.0	2	23.718395	0.0
	2	0.0	0.0	2	49.354886	0.0
	2	0.0	0.0	2	35.232014	0.0
	2	0.0	0.0	2	21.891639	0.0
	2	0.0	0.0	2	25.383461000000004	0.0
	2	0.0	0.0	2	8.035714	0.0
	2	0.0	0.0	2	33.91213	0.0
	2	0.0	0.0	2	25.457586000000003	0.0
	2	0.0	0.0	2	7.168126	0.0
	2	0.0	0.0	2	8.487093	0.0
	2	0.0	0.0	2	19.203903	0.0
	2	0.0	0.0	2	30.820178	0.0
	2	0.0	0.0	2	124.67254	0.0
	2	0.0	0.0	2	28.267849	0.0
	2	0.0	0.0	2	31.546462	0.0
	2	0.0	0.0	2	22.349251	0.0
	2	0.0	0.0	2	7.230771	0.0
	2	0.0	0.0	2	14.174214	0.0
	2	0.0	0.0	2	8.614738	0.0
	2	0.0	0.0	2	49.876052	0.0
];

